@<TRIPOS>MOLECULE
111_trifluoro_222_trimethoxyethane
   20    19    1     0    0
SMALL
USER_CHARGES
@<TRIPOS>ATOM
   1 C1      -0.8144    -3.0574    -0.2258 C.3      1  TMP  0.1252
   2 C2      -2.7161     0.3589     1.3307 C.3      1  TMP  0.1252
   3 C3      -2.8628    -2.2811     3.4071 C.3      1  TMP  0.1252
   4 C4      -1.3547    -1.5982     1.6332 C.3      1  TMP  0.5080
   5 C5      -0.1309    -2.0156     2.4573 C.3      1  TMP  0.6229
   6 O1      -1.1216    -1.7449     0.2209 O.3      1  TMP -0.4260
   7 O2      -1.6023    -0.2208     1.9984 O.3      1  TMP -0.4260
   8 O3      -2.4889    -2.3943     2.0416 O.3      1  TMP -0.4260
   9 F1       0.9459    -1.2598     2.1411 F        1  TMP -0.2325
  10 F2       0.2101    -3.3043     2.2281 F        1  TMP -0.2325
  11 F3      -0.3477    -1.8862     3.7840 F        1  TMP -0.2325
  12 H1       0.2146    -3.3042     0.0466 H        1  TMP  0.0521
  13 H2      -0.9388    -3.1126    -1.3102 H        1  TMP  0.0521
  14 H3      -1.4955    -3.7645     0.2536 H        1  TMP  0.0521
  15 H4      -3.1195    -0.3538     0.6072 H        1  TMP  0.0521
  16 H5      -2.4011     1.2730     0.8210 H        1  TMP  0.0521
  17 H6      -3.4854     0.6016     2.0675 H        1  TMP  0.0521
  18 H7      -2.4734    -1.3455     3.8159 H        1  TMP  0.0521
  19 H8      -2.4629    -3.1302     3.9669 H        1  TMP  0.0521
  20 H9      -3.9531    -2.2812     3.4782 H        1  TMP  0.0521
@<TRIPOS>BOND
   1    1    6 1 
   2    2    7 1 
   3    3    8 1 
   4    4    5 1 
   5    4    6 1 
   6    4    7 1 
   7    4    8 1 
   8    5    9 1 
   9    5   10 1 
  10    5   11 1 
  11    1   12 1 
  12    1   13 1 
  13    1   14 1 
  14    2   15 1 
  15    2   16 1 
  16    2   17 1 
  17    3   18 1 
  18    3   19 1 
  19    3   20 1 
@<TRIPOS>SUBSTRUCTURE
   1  TMP    1
@<TRIPOS>COMMENT
SMALL
NO_CHARGES
