@<TRIPOS>MOLECULE
11_diethoxyethane
   22    21    1     0    0
SMALL
USER_CHARGES
@<TRIPOS>ATOM
   1 C1      -2.4007     1.7168    -2.5964 C.3      1  R0_ -0.1020
   2 C2       0.1012    -3.9331    -4.1689 C.3      1  R0_ -0.1020
   3 C3      -0.0326    -1.0089    -0.4213 C.3      1  R0_ -0.1052
   4 C4      -1.1717     1.0616    -2.0031 C.3      1  R0_  0.1345
   5 C5       0.1007    -2.4667    -3.7930 C.3      1  R0_  0.1345
   6 C6       0.0350    -0.9855    -1.9430 C.3      1  R0_  0.3326
   7 O1      -1.1004    -0.2838    -2.4553 O.3      1  R0_ -0.4344
   8 O2       0.0393    -2.3517    -2.3774 O.3      1  R0_ -0.4344
   9 H1      -2.4863     2.7561    -2.2672 H        1  R0_  0.0431
  10 H2      -2.3597     1.6948    -3.6904 H        1  R0_  0.0431
  11 H3      -3.3064     1.1769    -2.3009 H        1  R0_  0.0431
  12 H4       0.1473    -4.0576    -5.2544 H        1  R0_  0.0431
  13 H5       0.9562    -4.4471    -3.7175 H        1  R0_  0.0431
  14 H6      -0.8013    -4.4277    -3.7947 H        1  R0_  0.0431
  15 H7      -0.9672    -1.4729    -0.0861 H        1  R0_  0.0517
  16 H8       0.0000    -0.0000     0.0000 H        1  R0_  0.0517
  17 H9       0.7920    -1.5952    -0.0033 H        1  R0_  0.0517
  18 H10     -1.2255     1.0638    -0.9103 H        1  R0_  0.0327
  19 H11     -0.2659     1.5880    -2.3184 H        1  R0_  0.0327
  20 H12     -0.7670    -1.9599    -4.2258 H        1  R0_  0.0327
  21 H13      1.0139    -1.9792    -4.1470 H        1  R0_  0.0327
  22 H14      0.9718    -0.5106    -2.2632 H        1  R0_  0.0317
@<TRIPOS>BOND
   1    1    4 1 
   2    2    5 1 
   3    3    6 1 
   4    4    7 1 
   5    5    8 1 
   6    6    7 1 
   7    6    8 1 
   8    1    9 1 
   9    1   10 1 
  10    1   11 1 
  11    2   12 1 
  12    2   13 1 
  13    2   14 1 
  14    3   15 1 
  15    3   16 1 
  16    3   17 1 
  17    4   18 1 
  18    4   19 1 
  19    5   20 1 
  20    5   21 1 
  21    6   22 1 
@<TRIPOS>SUBSTRUCTURE
   1  R0_    1
@<TRIPOS>COMMENT
SMALL
NO_CHARGES
