@<TRIPOS>MOLECULE
1234_tetrachlorobenzene
   12    12    1     0    0
SMALL
USER_CHARGES
@<TRIPOS>ATOM
   1 C1       1.8846    -1.0376    -0.1090 C.2      1  R0_ -0.1105
   2 C2       0.8176    -0.4410     0.5626 C.2      1  R0_ -0.1105
   3 C3       2.9348    -1.6038     0.6137 C.2      1  R0_  0.0217
   4 C4       0.8008    -0.4105     1.9570 C.2      1  R0_  0.0217
   5 C5       2.9180    -1.5734     2.0082 C.2      1  R0_  0.0227
   6 C6       1.8509    -0.9767     2.6799 C.2      1  R0_  0.0227
   7 Cl1      4.2213    -2.3250    -0.2916 Cl       1  R0_ -0.0556
   8 Cl2     -0.5570     0.3473     2.7168 Cl       1  R0_ -0.0556
   9 Cl3      4.2342    -2.2836     2.8980 Cl       1  R0_ -0.0380
  10 Cl4      1.8178    -0.9320     4.4191 Cl       1  R0_ -0.0380
  11 H1       1.8812    -1.0520    -1.1960 H        1  R0_  0.1597
  12 H2       0.0078    -0.0054    -0.0174 H        1  R0_  0.1597
@<TRIPOS>BOND
   1    1    2 1 
   2    1    3 2 
   3    2    4 2 
   4    3    5 1 
   5    3    7 1 
   6    4    6 1 
   7    4    8 1 
   8    5    6 2 
   9    5    9 1 
  10    6   10 1 
  11    1   11 1 
  12    2   12 1 
@<TRIPOS>SUBSTRUCTURE
   1  R0_    1
@<TRIPOS>COMMENT
SMALL
USER_CHARGES
