@<TRIPOS>MOLECULE
1_ethylnaphthalene
   24    25    1     0    0
SMALL
USER_CHARGES
@<TRIPOS>ATOM
   1 C1      -0.5682    -2.0626     0.2276 C.2      1  R0_ -0.1284
   2 C2       0.3420    -1.0307     0.0184 C.2      1  R0_ -0.1291
   3 C3       3.0392    -5.3112    -0.1006 C.2      1  R0_ -0.1248
   4 C4      -0.1295    -3.3868     0.2509 C.2      1  R0_ -0.1182
   5 C5       1.6942    -1.3191    -0.1681 C.2      1  R0_ -0.1193
   6 C6       1.6869    -5.0226     0.0857 C.2      1  R0_ -0.1221
   7 C7       3.9495    -4.2793    -0.3094 C.2      1  R0_ -0.1298
   8 C8       1.2279    -3.6954     0.0653 C.2      1  R0_ -0.0356
   9 C9       2.1534    -2.6461    -0.1474 C.2      1  R0_ -0.0295
  10 C10      3.5108    -2.9550    -0.3332 C.2      1  R0_ -0.0519
  11 C11      5.1501    -1.3915     0.7414 C.3      1  R0_ -0.0883
  12 C12      4.5424    -1.8938    -0.5630 C.3      1  R0_ -0.0482
  13 H1      -1.6210    -1.8375     0.3714 H        1  R0_  0.1316
  14 H2      -0.0010    -0.0004    -0.0001 H        1  R0_  0.1310
  15 H3       3.3815    -6.3418    -0.0815 H        1  R0_  0.1313
  16 H4      -0.8587    -4.1774     0.4165 H        1  R0_  0.1316
  17 H5       2.3743    -0.4857    -0.3288 H        1  R0_  0.1332
  18 H6       0.9934    -5.8453     0.2481 H        1  R0_  0.1317
  19 H7       5.0007    -4.5162    -0.4523 H        1  R0_  0.1323
  20 H8       4.3833    -0.9604     1.3939 H        1  R0_  0.0361
  21 H9       5.8997    -0.6191     0.5429 H        1  R0_  0.0361
  22 H10      5.6381    -2.2052     1.2885 H        1  R0_  0.0361
  23 H11      5.3417    -2.2783    -1.2130 H        1  R0_  0.0470
  24 H12      4.0990    -1.0477    -1.1080 H        1  R0_  0.0470
@<TRIPOS>BOND
   1    1    2 1 
   2    1    4 2 
   3    2    5 2 
   4    3    6 1 
   5    3    7 2 
   6    4    8 1 
   7    5    9 1 
   8    6    8 2 
   9    7   10 1 
  10    8    9 1 
  11    9   10 2 
  12   10   12 1 
  13   11   12 1 
  14    1   13 1 
  15    2   14 1 
  16    3   15 1 
  17    4   16 1 
  18    5   17 1 
  19    6   18 1 
  20    7   19 1 
  21   11   20 1 
  22   11   21 1 
  23   11   22 1 
  24   12   23 1 
  25   12   24 1 
@<TRIPOS>SUBSTRUCTURE
   1  R0_    1
@<TRIPOS>COMMENT
SMALL
USER_CHARGES
