@<TRIPOS>MOLECULE
1_naphthylamine
   20    21    1     0    0
SMALL
USER_CHARGES
@<TRIPOS>ATOM
   1 C1      -0.5682    -2.0626     0.2276 C.2      1  R0_ -0.1207
   2 C2       0.3420    -1.0307     0.0184 C.2      1  R0_ -0.1389
   3 C3       3.0392    -5.3112    -0.1006 C.2      1  R0_ -0.0853
   4 C4      -0.1295    -3.3868     0.2509 C.2      1  R0_ -0.1253
   5 C5       1.6942    -1.3191    -0.1681 C.2      1  R0_ -0.1105
   6 C6       1.6869    -5.0226     0.0857 C.2      1  R0_ -0.1647
   7 C7       3.9495    -4.2793    -0.3094 C.2      1  R0_ -0.2140
   8 C8       1.2279    -3.6954     0.0653 C.2      1  R0_ -0.0061
   9 C9       2.1534    -2.6461    -0.1474 C.2      1  R0_ -0.0661
  10 C10      3.5108    -2.9550    -0.3332 C.2      1  R0_  0.1560
  11 N1       4.4788    -1.9437    -0.5498 N.3      1  R0_ -0.8218
  12 H1      -1.6207    -1.8375     0.3728 H        1  R0_  0.1316
  13 H2      -0.0005    -0.0002     0.0003 H        1  R0_  0.1310
  14 H3       3.3810    -6.3419    -0.0824 H        1  R0_  0.1299
  15 H4      -0.8586    -4.1774     0.4159 H        1  R0_  0.1328
  16 H5       2.3730    -0.4846    -0.3287 H        1  R0_  0.1268
  17 H6       0.9932    -5.8451     0.2474 H        1  R0_  0.1324
  18 H7       5.0003    -4.5184    -0.4531 H        1  R0_  0.1307
  19 H8       5.2797    -1.9086     0.0429 H        1  R0_  0.3911
  20 H9       4.2920    -1.2354    -1.2262 H        1  R0_  0.3911
@<TRIPOS>BOND
   1    1    2 1 
   2    1    4 2 
   3    2    5 2 
   4    3    6 1 
   5    3    7 2 
   6    4    8 1 
   7    5    9 1 
   8    6    8 2 
   9    7   10 1 
  10    8    9 1 
  11    9   10 2 
  12   10   11 1 
  13    1   12 1 
  14    2   13 1 
  15    3   14 1 
  16    4   15 1 
  17    5   16 1 
  18    6   17 1 
  19    7   18 1 
  20   11   19 1 
  21   11   20 1 
@<TRIPOS>SUBSTRUCTURE
   1  R0_    1
@<TRIPOS>COMMENT
SMALL
USER_CHARGES
