@<TRIPOS>MOLECULE
2_ethyltoluene
   21    21    1     0    0
SMALL
USER_CHARGES
@<TRIPOS>ATOM
   1 C1       1.8846    -1.0376    -0.1090 C.2      1  R0_ -0.1309
   2 C2       0.8176    -0.4410     0.5626 C.2      1  R0_ -0.1324
   3 C3       2.9348    -1.6038     0.6137 C.2      1  R0_ -0.1285
   4 C4       0.8008    -0.4105     1.9570 C.2      1  R0_ -0.1263
   5 C5       2.9180    -1.5734     2.0082 C.2      1  R0_ -0.0661
   6 C6       1.8509    -0.9767     2.6799 C.2      1  R0_ -0.0659
   7 C7       4.0541    -2.1853     2.7603 C.3      1  R0_ -0.0596
   8 C8       1.1153    -2.1517     4.7692 C.3      1  R0_ -0.0869
   9 C9       1.8108    -0.9320     4.1721 C.3      1  R0_ -0.0459
  10 H1       1.8974    -1.0617    -1.1945 H        1  R0_  0.1296
  11 H2      -0.0001    -0.0006    -0.0005 H        1  R0_  0.1295
  12 H3       3.7611    -2.0672     0.0812 H        1  R0_  0.1293
  13 H4      -0.0350     0.0566     2.4715 H        1  R0_  0.1305
  14 H5       4.5578    -1.4268     3.3706 H        1  R0_  0.0424
  15 H6       3.7054    -2.9896     3.4196 H        1  R0_  0.0424
  16 H7       4.7887    -2.6286     2.0767 H        1  R0_  0.0424
  17 H8       0.0795    -2.2239     4.4205 H        1  R0_  0.0348
  18 H9       1.1018    -2.0923     5.8620 H        1  R0_  0.0348
  19 H10      1.6302    -3.0760     4.4860 H        1  R0_  0.0348
  20 H11      2.8314    -0.8626     4.5798 H        1  R0_  0.0459
  21 H12      1.2968    -0.0199     4.5134 H        1  R0_  0.0459
@<TRIPOS>BOND
   1    1    2 1 
   2    1    3 2 
   3    2    4 2 
   4    3    5 1 
   5    4    6 1 
   6    5    6 2 
   7    5    7 1 
   8    6    9 1 
   9    8    9 1 
  10    1   10 1 
  11    2   11 1 
  12    3   12 1 
  13    4   13 1 
  14    7   14 1 
  15    7   15 1 
  16    7   16 1 
  17    8   17 1 
  18    8   18 1 
  19    8   19 1 
  20    9   20 1 
  21    9   21 1 
@<TRIPOS>SUBSTRUCTURE
   1  R0_    1
@<TRIPOS>COMMENT
SMALL
USER_CHARGES
