@<TRIPOS>MOLECULE
2_methoxyphenol
   17    17    1     0    0
SMALL
USER_CHARGES
@<TRIPOS>ATOM
   1 C1       1.8846    -1.0376    -0.1090 C.2      1  R0_ -0.1260
   2 C2       0.8176    -0.4410     0.5626 C.2      1  R0_ -0.1350
   3 C3       2.9348    -1.6038     0.6137 C.2      1  R0_ -0.1366
   4 C4       0.8008    -0.4105     1.9570 C.2      1  R0_ -0.1613
   5 C5       2.9180    -1.5734     2.0082 C.2      1  R0_  0.1111
   6 C6       1.8509    -0.9767     2.6799 C.2      1  R0_  0.0421
   7 C7       1.1979    -2.0364     4.7064 C.3      1  R0_  0.1260
   8 O1       3.9486    -2.1305     2.7029 O.3      1  R0_ -0.4977
   9 O2       1.8229    -0.9404     4.0413 O.3      1  R0_ -0.3506
  10 H1       1.8977    -1.0595    -1.1948 H        1  R0_  0.1354
  11 H2      -0.0001     0.0009     0.0007 H        1  R0_  0.1338
  12 H3       3.7626    -2.0675     0.0844 H        1  R0_  0.1520
  13 H4      -0.0333     0.0561     2.4743 H        1  R0_  0.1373
  14 H5       1.9148    -2.8539     4.8158 H        1  R0_  0.0444
  15 H6       0.3337    -2.3706     4.1268 H        1  R0_  0.0444
  16 H7       0.8669    -1.7103     5.6952 H        1  R0_  0.0444
  17 H8       3.8562    -1.8953     3.6439 H        1  R0_  0.4364
@<TRIPOS>BOND
   1    1    2 1 
   2    1    3 2 
   3    2    4 2 
   4    3    5 1 
   5    4    6 1 
   6    5    6 2 
   7    5    8 1 
   8    6    9 1 
   9    7    9 1 
  10    1   10 1 
  11    2   11 1 
  12    3   12 1 
  13    4   13 1 
  14    7   14 1 
  15    7   15 1 
  16    7   16 1 
  17    8   17 1 
@<TRIPOS>SUBSTRUCTURE
   1  R0_    1
@<TRIPOS>COMMENT
SMALL
USER_CHARGES
