@<TRIPOS>MOLECULE
2_methylpropane
   14    13    1     0    0
SMALL
USER_CHARGES
@<TRIPOS>ATOM
   1 C1       0.6623    -0.3793    -0.7853 C.3      1  R0_ -0.0867
   2 C2      -0.0690     1.4478    -2.3443 C.3      1  R0_ -0.0867
   3 C3       1.0050    -0.6288    -3.2598 C.3      1  R0_ -0.0867
   4 C4       0.1007    -0.0597    -2.1688 C.3      1  R0_ -0.0692
   5 H1       1.6503     0.0716    -0.6419 H        1  R0_  0.0318
   6 H2      -0.0000     0.0000     0.0000 H        1  R0_  0.0318
   7 H3       0.7604    -1.4611    -0.6461 H        1  R0_  0.0318
   8 H4       0.8916     1.9687    -2.2668 H        1  R0_  0.0318
   9 H5      -0.7378     1.8553    -1.5789 H        1  R0_  0.0318
  10 H6      -0.5012     1.6786    -3.3237 H        1  R0_  0.0318
  11 H7       2.0078    -0.1902    -3.2154 H        1  R0_  0.0318
  12 H8       0.5904    -0.4263    -4.2530 H        1  R0_  0.0318
  13 H9       1.1054    -1.7142    -3.1543 H        1  R0_  0.0318
  14 H10     -0.8858    -0.5306    -2.2580 H        1  R0_  0.0433
@<TRIPOS>BOND
   1    1    4 1 
   2    2    4 1 
   3    3    4 1 
   4    1    5 1 
   5    1    6 1 
   6    1    7 1 
   7    2    8 1 
   8    2    9 1 
   9    2   10 1 
  10    3   11 1 
  11    3   12 1 
  12    3   13 1 
  13    4   14 1 
@<TRIPOS>SUBSTRUCTURE
   1  R0_    1
@<TRIPOS>COMMENT
SMALL
NO_CHARGES
