@<TRIPOS>MOLECULE
2_naphthol
   19    20    1     0    0
SMALL
USER_CHARGES
@<TRIPOS>ATOM
   1 C1      -0.5710    -2.0558     0.2748 C.2      1  R0_ -0.1388
   2 C2       0.3374    -1.0322     0.0227 C.2      1  R0_ -0.1165
   3 C3      -0.1389    -3.3821     0.3036 C.2      1  R0_ -0.1057
   4 C4       1.6817    -1.3308    -0.2013 C.2      1  R0_ -0.1294
   5 C5       1.6634    -5.0301     0.1058 C.2      1  R0_ -0.0883
   6 C6       3.0079    -5.3284    -0.1178 C.2      1  R0_ -0.1417
   7 C7       3.4839    -2.9787    -0.3987 C.2      1  R0_ -0.2193
   8 C8       1.2105    -3.7009     0.0804 C.2      1  R0_ -0.0658
   9 C9       2.1345    -2.6600    -0.1755 C.2      1  R0_  0.0020
  10 C10      3.9165    -4.3048    -0.3696 C.2      1  R0_  0.1312
  11 O1       5.2278    -4.5970    -0.5869 O.3      1  R0_ -0.4987
  12 H1      -1.6172    -1.8217     0.4492 H        1  R0_  0.1324
  13 H2       0.0004     0.0001     0.0007 H        1  R0_  0.1317
  14 H3      -0.8666    -4.1665     0.5015 H        1  R0_  0.1316
  15 H4       2.3741    -0.5142    -0.3960 H        1  R0_  0.1318
  16 H5       0.9707    -5.8465     0.2992 H        1  R0_  0.1364
  17 H6       3.3389    -6.3631    -0.0938 H        1  R0_  0.1516
  18 H7       4.2073    -2.1899    -0.5975 H        1  R0_  0.1353
  19 H8       5.6977    -4.5903     0.2671 H        1  R0_  0.4203
@<TRIPOS>BOND
   1    1    2 1 
   2    1    3 2 
   3    2    4 2 
   4    3    8 1 
   5    4    9 1 
   6    5    6 1 
   7    5    8 2 
   8    6   10 2 
   9    7    9 2 
  10    7   10 1 
  11    8    9 1 
  12   10   11 1 
  13    1   12 1 
  14    2   13 1 
  15    3   14 1 
  16    4   15 1 
  17    5   16 1 
  18    6   17 1 
  19    7   18 1 
  20   11   19 1 
@<TRIPOS>SUBSTRUCTURE
   1  R0_    1
@<TRIPOS>COMMENT
SMALL
USER_CHARGES
