@<TRIPOS>MOLECULE
2_nitroaniline
   16    16    1     0    0
SMALL
USER_CHARGES
@<TRIPOS>ATOM
   1 C1       1.8846    -1.0376    -0.1090 C.2      1  R0_ -0.0547
   2 C2       0.8176    -0.4410     0.5626 C.2      1  R0_ -0.1818
   3 C3       2.9348    -1.6038     0.6137 C.2      1  R0_ -0.2082
   4 C4       0.8008    -0.4105     1.9570 C.2      1  R0_ -0.0382
   5 C5       2.9180    -1.5734     2.0082 C.2      1  R0_  0.2248
   6 C6       1.8509    -0.9767     2.6799 C.2      1  R0_ -0.2373
   7 N1       3.9941    -2.1538     2.7169 N.3      1  R0_ -0.8370
   8 N2       1.8088    -0.9315     4.1018 N.2      1  R0_  0.3155
   9 O1       0.8297    -0.3842     4.6608 O.3      1  R0_ -0.2096
  10 O2       2.7519    -1.4405     4.7513 O.2      1  R0_ -0.2096
  11 H1       1.8974    -1.0610    -1.1947 H        1  R0_  0.1410
  12 H2      -0.0002    -0.0004    -0.0002 H        1  R0_  0.1470
  13 H3       3.7608    -2.0659     0.0791 H        1  R0_  0.1434
  14 H4      -0.0377     0.0581     2.4664 H        1  R0_  0.1571
  15 H5       4.5487    -2.8532     2.2692 H        1  R0_  0.4238
  16 H6       4.1208    -1.9231     3.6802 H        1  R0_  0.4238
@<TRIPOS>BOND
   1    1    2 1 
   2    1    3 2 
   3    2    4 2 
   4    3    5 1 
   5    4    6 1 
   6    5    6 2 
   7    5    7 1 
   8    6    8 1 
   9    8    9 1 
  10    8   10 2 
  11    1   11 1 
  12    2   12 1 
  13    3   13 1 
  14    4   14 1 
  15    7   15 1 
  16    7   16 1 
@<TRIPOS>SUBSTRUCTURE
   1  R0_    1
@<TRIPOS>COMMENT
SMALL
USER_CHARGES
