@<TRIPOS>MOLECULE
3_methyl_1h_indole
   19    20    1     0    0
SMALL
USER_CHARGES
@<TRIPOS>ATOM
   1 C1      -1.0572     0.9297     1.6236 C.2      1  R0_ -0.1602
   2 C2      -0.8011    -0.1060     0.7272 C.2      1  R0_ -0.1125
   3 C3      -2.0821     0.8205     2.5705 C.2      1  R0_ -0.0809
   4 C4      -1.5584    -1.2807     0.7476 C.2      1  R0_ -0.1476
   5 C5      -4.3013    -2.0546     2.9823 C.2      1  R0_ -0.1100
   6 C6      -2.8590    -0.3544     2.6101 C.2      1  R0_ -0.0913
   7 C7      -3.9474    -0.7967     3.4130 C.2      1  R0_ -0.1360
   8 C8      -2.5798    -1.3758     1.6995 C.2      1  R0_ -0.0446
   9 C9      -4.5897    -0.0495     4.5134 C.3      1  R0_ -0.0188
  10 N1      -3.4708    -2.3953     1.9487 N.3      1  R0_ -0.1932
  11 H1      -0.4554     1.8341     1.5876 H        1  R0_  0.1282
  12 H2      -0.0006     0.0003    -0.0005 H        1  R0_  0.1279
  13 H3      -2.2702     1.6366     3.2623 H        1  R0_  0.1329
  14 H4      -1.3587    -2.0863     0.0494 H        1  R0_  0.1304
  15 H5      -5.0692    -2.7382     3.3172 H        1  R0_  0.1638
  16 H6      -4.1064    -0.2783     5.4737 H        1  R0_  0.0385
  17 H7      -4.5347     1.0390     4.3672 H        1  R0_  0.0385
  18 H8      -5.6559    -0.3022     4.6072 H        1  R0_  0.0385
  19 H9      -3.5065    -3.2685     1.4407 H        1  R0_  0.2965
@<TRIPOS>BOND
   1    1    2 1 
   2    1    3 2 
   3    2    4 2 
   4    3    6 1 
   5    4    8 1 
   6    5    7 2 
   7    5   10 1 
   8    6    7 1 
   9    6    8 2 
  10    7    9 1 
  11    8   10 1 
  12    1   11 1 
  13    2   12 1 
  14    3   13 1 
  15    4   14 1 
  16    5   15 1 
  17    9   16 1 
  18    9   17 1 
  19    9   18 1 
  20   10   19 1 
@<TRIPOS>SUBSTRUCTURE
   1  R0_    1
@<TRIPOS>COMMENT
SMALL
NO_CHARGES
