@<TRIPOS>MOLECULE
4_bromophenol
   13    13    1     0    0
SMALL
USER_CHARGES
@<TRIPOS>ATOM
   1 C1       0.8178    -0.4385     0.5644 C.2      1  R0_ -0.1870
   2 C2       2.9371    -1.5972     0.6197 C.2      1  R0_ -0.1870
   3 C3       0.7994    -0.4058     1.9588 C.2      1  R0_ -0.0662
   4 C4       2.9185    -1.5646     2.0141 C.2      1  R0_ -0.0662
   5 C5       1.8867    -1.0341    -0.1051 C.2      1  R0_  0.1383
   6 C6       1.8497    -0.9689     2.6836 C.2      1  R0_ -0.0649
   7 O1       1.9054    -1.0650    -1.4657 O.3      1  R0_ -0.4942
   8 Br1      1.8248    -0.9245     4.5730 Br       1  R0_ -0.0882
   9 H1      -0.0027     0.0029     0.0054 H        1  R0_  0.1477
  10 H2       3.7719    -2.0633     0.1036 H        1  R0_  0.1477
  11 H3      -0.0413     0.0617     2.4651 H        1  R0_  0.1486
  12 H4       3.7458    -2.0064     2.5638 H        1  R0_  0.1486
  13 H5       2.6765    -1.5843    -1.7583 H        1  R0_  0.4229
@<TRIPOS>BOND
   1    1    3 1 
   2    1    5 2 
   3    2    4 2 
   4    2    5 1 
   5    3    6 2 
   6    4    6 1 
   7    5    7 1 
   8    6    8 1 
   9    1    9 1 
  10    2   10 1 
  11    3   11 1 
  12    4   12 1 
  13    7   13 1 
@<TRIPOS>SUBSTRUCTURE
   1  R0_    1
@<TRIPOS>COMMENT
SMALL
USER_CHARGES
