@<TRIPOS>MOLECULE
4_chloroaniline
   14    14    1     0    0
SMALL
USER_CHARGES
@<TRIPOS>ATOM
   1 C1       0.8178    -0.4385     0.5644 C.2      1  R0_ -0.1885
   2 C2       2.9371    -1.5972     0.6197 C.2      1  R0_ -0.1885
   3 C3       0.7994    -0.4058     1.9588 C.2      1  R0_ -0.0840
   4 C4       2.9185    -1.5646     2.0141 C.2      1  R0_ -0.0840
   5 C5       1.8867    -1.0341    -0.1051 C.2      1  R0_  0.1498
   6 C6       1.8497    -0.9689     2.6836 C.2      1  R0_ -0.0292
   7 N1       1.9055    -1.0670    -1.5149 N.3      1  R0_ -0.8277
   8 Cl1      1.8274    -0.9276     4.4039 Cl       1  R0_ -0.1018
   9 H1      -0.0058     0.0033     0.0094 H        1  R0_  0.1364
  10 H2       3.7751    -2.0636     0.1080 H        1  R0_  0.1364
  11 H3      -0.0399     0.0619     2.4672 H        1  R0_  0.1449
  12 H4       3.7440    -2.0071     2.5658 H        1  R0_  0.1449
  13 H5       1.1741    -0.6126    -2.0234 H        1  R0_  0.3956
  14 H6       2.5948    -1.6219    -1.9806 H        1  R0_  0.3956
@<TRIPOS>BOND
   1    1    3 1 
   2    1    5 2 
   3    2    4 2 
   4    2    5 1 
   5    3    6 2 
   6    4    6 1 
   7    5    7 1 
   8    6    8 1 
   9    1    9 1 
  10    2   10 1 
  11    3   11 1 
  12    4   12 1 
  13    7   13 1 
  14    7   14 1 
@<TRIPOS>SUBSTRUCTURE
   1  R0_    1
@<TRIPOS>COMMENT
SMALL
USER_CHARGES
