@<TRIPOS>MOLECULE
4_nitroaniline
   16    16    1     0    0
SMALL
USER_CHARGES
@<TRIPOS>ATOM
   1 C1       0.8178    -0.4385     0.5644 C.2      1  R0_ -0.2231
   2 C2       2.9371    -1.5972     0.6197 C.2      1  R0_ -0.2231
   3 C3       0.7994    -0.4058     1.9588 C.2      1  R0_ -0.0194
   4 C4       2.9185    -1.5646     2.0141 C.2      1  R0_ -0.0194
   5 C5       1.8867    -1.0341    -0.1051 C.2      1  R0_  0.2235
   6 C6       1.8497    -0.9689     2.6836 C.2      1  R0_ -0.2373
   7 N1       1.9039    -1.0702    -1.5147 N.3      1  R0_ -0.8562
   8 N2       1.8313    -0.9327     4.1030 N.2      1  R0_  0.3203
   9 O1       0.8612    -0.3897     4.6848 O.3      1  R0_ -0.2162
  10 O2       2.7853    -1.4451     4.7368 O.2      1  R0_ -0.2162
  11 H1      -0.0063     0.0024     0.0093 H        1  R0_  0.1448
  12 H2       3.7751    -2.0637     0.1082 H        1  R0_  0.1448
  13 H3      -0.0402     0.0609     2.4681 H        1  R0_  0.1641
  14 H4       3.7444    -2.0059     2.5669 H        1  R0_  0.1641
  15 H5       1.1687    -0.6220    -2.0234 H        1  R0_  0.4246
  16 H6       2.5964    -1.6215    -1.9802 H        1  R0_  0.4246
@<TRIPOS>BOND
   1    1    3 1 
   2    1    5 2 
   3    2    4 2 
   4    2    5 1 
   5    3    6 2 
   6    4    6 1 
   7    5    7 1 
   8    6    8 1 
   9    8    9 1 
  10    8   10 2 
  11    1   11 1 
  12    2   12 1 
  13    3   13 1 
  14    4   14 1 
  15    7   15 1 
  16    7   16 1 
@<TRIPOS>SUBSTRUCTURE
   1  R0_    1
@<TRIPOS>COMMENT
SMALL
USER_CHARGES
