@<TRIPOS>MOLECULE
ammonia
    4     3    1     0    0
SMALL
USER_CHARGES
@<TRIPOS>ATOM
   1 N1      -0.7256    -0.6895     0.1909 N.3      1  R0_ -1.0098
   2 H1      -1.1675    -0.3989     1.0619 H        1  R0_  0.3366
   3 H2       0.0000     0.0000     0.0000 H        1  R0_  0.3366
   4 H3      -0.2381    -1.5596     0.3996 H        1  R0_  0.3366
@<TRIPOS>BOND
   1    1    2 1 
   2    1    3 1 
   3    1    4 1 
@<TRIPOS>SUBSTRUCTURE
   1  R0_    1
@<TRIPOS>COMMENT
SMALL
USER_CHARGES
