@<TRIPOS>MOLECULE
benzene
   12    12    1     0    0
SMALL
USER_CHARGES
@<TRIPOS>ATOM
   1 C1       1.8846    -1.0376    -0.1090 C.2      1  R0_ -0.1301
   2 C2       0.8176    -0.4410     0.5626 C.2      1  R0_ -0.1301
   3 C3       2.9348    -1.6038     0.6137 C.2      1  R0_ -0.1301
   4 C4       0.8008    -0.4105     1.9570 C.2      1  R0_ -0.1301
   5 C5       2.9180    -1.5734     2.0082 C.2      1  R0_ -0.1301
   6 C6       1.8509    -0.9767     2.6799 C.2      1  R0_ -0.1301
   7 H1       1.8980    -1.0609    -1.1947 H        1  R0_  0.1301
   8 H2       0.0001     0.0000    -0.0001 H        1  R0_  0.1301
   9 H3       3.7660    -2.0676     0.0907 H        1  R0_  0.1301
  10 H4      -0.0298     0.0544     2.4800 H        1  R0_  0.1301
  11 H5       3.7360    -2.0137     2.5709 H        1  R0_  0.1301
  12 H6       1.8378    -0.9527     3.7656 H        1  R0_  0.1301
@<TRIPOS>BOND
   1    1    2 1 
   2    1    3 2 
   3    2    4 2 
   4    3    5 1 
   5    4    6 1 
   6    5    6 2 
   7    1    7 1 
   8    2    8 1 
   9    3    9 1 
  10    4   10 1 
  11    5   11 1 
  12    6   12 1 
@<TRIPOS>SUBSTRUCTURE
   1  R0_    1
@<TRIPOS>COMMENT
SMALL
USER_CHARGES
