@<TRIPOS>MOLECULE
benzyl_chloride
   15    15    1     0    0
SMALL
USER_CHARGES
@<TRIPOS>ATOM
   1 C1       1.8846    -1.0376    -0.1090 C.2      1  R0_ -0.1191
   2 C2       0.8176    -0.4410     0.5626 C.2      1  R0_ -0.1315
   3 C3       2.9348    -1.6038     0.6137 C.2      1  R0_ -0.1315
   4 C4       0.8008    -0.4105     1.9570 C.2      1  R0_ -0.1083
   5 C5       2.9180    -1.5734     2.0082 C.2      1  R0_ -0.1083
   6 C6       1.8509    -0.9767     2.6799 C.2      1  R0_ -0.0954
   7 C7       1.8328    -0.9437     4.1709 C.3      1  R0_  0.0781
   8 Cl1      1.0238    -2.3872     4.8216 Cl       1  R0_ -0.1938
   9 H1       1.8979    -1.0612    -1.1948 H        1  R0_  0.1332
  10 H2       0.0002     0.0000    -0.0002 H        1  R0_  0.1341
  11 H3       3.7655    -2.0682     0.0906 H        1  R0_  0.1341
  12 H4      -0.0347     0.0567     2.4718 H        1  R0_  0.1352
  13 H5       3.7404    -2.0171     2.5631 H        1  R0_  0.1352
  14 H6       1.3019    -0.0593     4.5473 H        1  R0_  0.0690
  15 H7       2.8492    -0.9095     4.5850 H        1  R0_  0.0690
@<TRIPOS>BOND
   1    1    2 1 
   2    1    3 2 
   3    2    4 2 
   4    3    5 1 
   5    4    6 1 
   6    5    6 2 
   7    6    7 1 
   8    7    8 1 
   9    1    9 1 
  10    2   10 1 
  11    3   11 1 
  12    4   12 1 
  13    5   13 1 
  14    7   14 1 
  15    7   15 1 
@<TRIPOS>SUBSTRUCTURE
   1  R0_    1
@<TRIPOS>COMMENT
SMALL
NO_CHARGES
