@<TRIPOS>MOLECULE
benzyl_bromide
   15    15    1     0    0
SMALL
USER_CHARGES
@<TRIPOS>ATOM
   1 C1       1.8846    -1.0376    -0.1090 C.2      1  R0_ -0.1209
   2 C2       0.8176    -0.4410     0.5626 C.2      1  R0_ -0.1294
   3 C3       2.9348    -1.6038     0.6137 C.2      1  R0_ -0.1294
   4 C4       0.8008    -0.4105     1.9570 C.2      1  R0_ -0.1116
   5 C5       2.9180    -1.5734     2.0082 C.2      1  R0_ -0.1116
   6 C6       1.8509    -0.9767     2.6799 C.2      1  R0_ -0.0841
   7 C7       1.8328    -0.9437     4.1709 C.3      1  R0_  0.0322
   8 Br1      0.9416    -2.5356     4.8464 Br       1  R0_ -0.1730
   9 H1       1.8979    -1.0612    -1.1948 H        1  R0_  0.1333
  10 H2       0.0002     0.0000    -0.0002 H        1  R0_  0.1342
  11 H3       3.7655    -2.0682     0.0906 H        1  R0_  0.1342
  12 H4      -0.0347     0.0567     2.4718 H        1  R0_  0.1353
  13 H5       3.7404    -2.0171     2.5631 H        1  R0_  0.1353
  14 H6       1.2856    -0.0778     4.5606 H        1  R0_  0.0778
  15 H7       2.8420    -0.9332     4.5984 H        1  R0_  0.0778
@<TRIPOS>BOND
   1    1    2 1 
   2    1    3 2 
   3    2    4 2 
   4    3    5 1 
   5    4    6 1 
   6    5    6 2 
   7    6    7 1 
   8    7    8 1 
   9    1    9 1 
  10    2   10 1 
  11    3   11 1 
  12    4   12 1 
  13    5   13 1 
  14    7   14 1 
  15    7   15 1 
@<TRIPOS>SUBSTRUCTURE
   1  R0_    1
@<TRIPOS>COMMENT
SMALL
NO_CHARGES
