@<TRIPOS>MOLECULE
benzamide
   16    16    1     0    0
SMALL
USER_CHARGES
@<TRIPOS>ATOM
   1 C1       1.8846    -1.0376    -0.1090 C.2      1  R0_ -0.1067
   2 C2       0.8176    -0.4410     0.5626 C.2      1  R0_ -0.1404
   3 C3       2.9348    -1.6038     0.6137 C.2      1  R0_ -0.1404
   4 C4       0.8008    -0.4105     1.9570 C.2      1  R0_ -0.0890
   5 C5       2.9180    -1.5734     2.0082 C.2      1  R0_ -0.0890
   6 C6       1.8509    -0.9767     2.6799 C.2      1  R0_ -0.1414
   7 C7       1.8333    -0.9446     4.1336 C.2      1  R0_  0.6673
   8 N1       0.7459    -0.3370     4.7550 N.3      1  R0_ -0.6737
   9 O1       2.7631    -1.4266     4.8042 O.2      1  R0_ -0.6111
  10 H1       1.8975    -1.0613    -1.1948 H        1  R0_  0.1352
  11 H2       0.0001     0.0000    -0.0000 H        1  R0_  0.1371
  12 H3       3.7651    -2.0690     0.0906 H        1  R0_  0.1371
  13 H4      -0.0358     0.0574     2.4697 H        1  R0_  0.1453
  14 H5       3.7417    -2.0179     2.5610 H        1  R0_  0.1453
  15 H6       0.0075     0.0608     4.1847 H        1  R0_  0.3122
  16 H7       0.6756    -0.2832     5.7660 H        1  R0_  0.3122
@<TRIPOS>BOND
   1    1    2 1 
   2    1    3 2 
   3    2    4 2 
   4    3    5 1 
   5    4    6 1 
   6    5    6 2 
   7    6    7 1 
   8    7    8 am
   9    7    9 2 
  10    1   10 1 
  11    2   11 1 
  12    3   12 1 
  13    4   13 1 
  14    5   14 1 
  15    8   15 1 
  16    8   16 1 
@<TRIPOS>SUBSTRUCTURE
   1  R0_    1
@<TRIPOS>COMMENT
SMALL
NO_CHARGES
