@<TRIPOS>MOLECULE
benzonitrile
   13    13    1     0    0
SMALL
USER_CHARGES
@<TRIPOS>ATOM
   1 C1       1.8335    -0.9455     4.1084 C.1      1  R0_  0.2311
   2 C2       1.8846    -1.0376    -0.1090 C.2      1  R0_ -0.1068
   3 C3       0.8176    -0.4410     0.5626 C.2      1  R0_ -0.1349
   4 C4       2.9348    -1.6038     0.6137 C.2      1  R0_ -0.1349
   5 C5       0.8008    -0.4105     1.9570 C.2      1  R0_ -0.0907
   6 C6       2.9180    -1.5734     2.0082 C.2      1  R0_ -0.0907
   7 C7       1.8509    -0.9767     2.6799 C.2      1  R0_ -0.0188
   8 N1       1.8193    -0.9202     5.2700 N.1      1  R0_ -0.3622
   9 H1       1.8978    -1.0612    -1.1947 H        1  R0_  0.1379
  10 H2       0.0001    -0.0002    -0.0003 H        1  R0_  0.1400
  11 H3       3.7655    -2.0682     0.0905 H        1  R0_  0.1400
  12 H4      -0.0380     0.0582     2.4662 H        1  R0_  0.1451
  13 H5       3.7439    -2.0189     2.5576 H        1  R0_  0.1451
@<TRIPOS>BOND
   1    1    7 1 
   2    1    8 3 
   3    2    3 1 
   4    2    4 2 
   5    3    5 2 
   6    4    6 1 
   7    5    7 1 
   8    6    7 2 
   9    2    9 1 
  10    3   10 1 
  11    4   11 1 
  12    5   12 1 
  13    6   13 1 
@<TRIPOS>SUBSTRUCTURE
   1  R0_    1
@<TRIPOS>COMMENT
SMALL
USER_CHARGES
