@<TRIPOS>MOLECULE
biphenyl
   22    23    1     0    0
SMALL
USER_CHARGES
@<TRIPOS>ATOM
   1 C1       1.8846    -1.0376    -0.1090 C.2      1  R0_ -0.1277
   2 C2       1.7989    -0.8817     6.9152 C.2      1  R0_ -0.1277
   3 C3       0.8176    -0.4410     0.5626 C.2      1  R0_ -0.1309
   4 C4       2.9348    -1.6038     0.6137 C.2      1  R0_ -0.1309
   5 C5       2.3894     0.1610     6.2014 C.2      1  R0_ -0.1309
   6 C6       1.2256    -1.9559     6.2347 C.2      1  R0_ -0.1309
   7 C7       0.8008    -0.4105     1.9570 C.2      1  R0_ -0.1183
   8 C8       2.9180    -1.5734     2.0082 C.2      1  R0_ -0.1183
   9 C9       2.4064     0.1297     4.8070 C.2      1  R0_ -0.1183
  10 C10      1.2428    -1.9874     4.8403 C.2      1  R0_ -0.1183
  11 C11      1.8509    -0.9767     2.6799 C.2      1  R0_ -0.0390
  12 C12      1.8333    -0.9446     4.1264 C.2      1  R0_ -0.0390
  13 H1       1.8982    -1.0607    -1.1948 H        1  R0_  0.1313
  14 H2       1.7848    -0.8569     8.0010 H        1  R0_  0.1313
  15 H3       0.0005     0.0003    -0.0002 H        1  R0_  0.1317
  16 H4       3.7655    -2.0681     0.0904 H        1  R0_  0.1317
  17 H5       2.8350     0.9975     6.7314 H        1  R0_  0.1317
  18 H6       0.7659    -2.7676     6.7909 H        1  R0_  0.1317
  19 H7      -0.0377     0.0580     2.4668 H        1  R0_  0.1352
  20 H8       3.7434    -2.0192     2.5584 H        1  R0_  0.1352
  21 H9       2.8704     0.9497     4.2641 H        1  R0_  0.1352
  22 H10      0.7923    -2.8317     4.3233 H        1  R0_  0.1352
@<TRIPOS>BOND
   1    1    3 1 
   2    1    4 2 
   3    2    5 1 
   4    2    6 2 
   5    3    7 2 
   6    4    8 1 
   7    5    9 2 
   8    6   10 1 
   9    7   11 1 
  10    8   11 2 
  11    9   12 1 
  12   10   12 2 
  13   11   12 1 
  14    1   13 1 
  15    2   14 1 
  16    3   15 1 
  17    4   16 1 
  18    5   17 1 
  19    6   18 1 
  20    7   19 1 
  21    8   20 1 
  22    9   21 1 
  23   10   22 1 
@<TRIPOS>SUBSTRUCTURE
   1  R0_    1
@<TRIPOS>COMMENT
SMALL
USER_CHARGES
