@<TRIPOS>MOLECULE
bis_2_chloroethyl__ether
   15    14    1     0    0
SMALL
USER_CHARGES
@<TRIPOS>ATOM
   1 C1      -0.7818    -0.2452    -0.7259 C.3      1  R0_  0.1240
   2 C2      -1.1011    -0.8401    -2.9768 C.3      1  R0_  0.1240
   3 C3       0.2655     0.1269     0.3073 C.3      1  R0_  0.0288
   4 C4      -0.3826    -1.2188    -4.2587 C.3      1  R0_  0.0288
   5 O1      -0.1499    -0.5456    -1.9628 O.3      1  R0_ -0.4124
   6 Cl1      1.1778     1.5689    -0.2067 Cl       1  R0_ -0.1786
   7 Cl2      0.6758     0.1060    -4.8066 Cl       1  R0_ -0.1786
   8 H1      -1.3758    -1.1082    -0.4077 H        1  R0_  0.0421
   9 H2      -1.4562     0.6012    -0.8900 H        1  R0_  0.0421
  10 H3      -1.7536     0.0275    -3.1194 H        1  R0_  0.0421
  11 H4      -1.7101    -1.6818    -2.6319 H        1  R0_  0.0421
  12 H5      -0.1942     0.3635     1.2712 H        1  R0_  0.0739
  13 H6       0.9855    -0.6852     0.4397 H        1  R0_  0.0739
  14 H7       0.2514    -2.0982    -4.1134 H        1  R0_  0.0739
  15 H8      -1.0988    -1.4179    -5.0605 H        1  R0_  0.0739
@<TRIPOS>BOND
   1    1    3 1 
   2    1    5 1 
   3    2    4 1 
   4    2    5 1 
   5    3    6 1 
   6    4    7 1 
   7    1    8 1 
   8    1    9 1 
   9    2   10 1 
  10    2   11 1 
  11    3   12 1 
  12    3   13 1 
  13    4   14 1 
  14    4   15 1 
@<TRIPOS>SUBSTRUCTURE
   1  R0_    1
@<TRIPOS>COMMENT
SMALL
NO_CHARGES
