@<TRIPOS>MOLECULE
buta_13_diene
   10     9    1     0    0
SMALL
USER_CHARGES
@<TRIPOS>ATOM
   1 C1      -1.0635    -0.9856    -0.6119 C.2      1  R0_ -0.2092
   2 C2      -2.2248    -1.9321     2.7408 C.2      1  R0_ -0.2092
   3 C3      -1.7559    -1.5851     0.3632 C.2      1  R0_ -0.1380
   4 C4      -1.5320    -1.3323     1.7662 C.2      1  R0_ -0.1380
   5 H1      -1.2497    -1.1918    -1.6608 H        1  R0_  0.1125
   6 H2      -0.2874    -0.2674    -0.3689 H        1  R0_  0.1125
   7 H3      -2.0388    -1.7261     3.7898 H        1  R0_  0.1125
   8 H4      -3.0010    -2.6500     2.4977 H        1  R0_  0.1125
   9 H5      -2.5287    -2.2995     0.0923 H        1  R0_  0.1221
  10 H6      -0.7600    -0.6170     2.0371 H        1  R0_  0.1221
@<TRIPOS>BOND
   1    1    3 2 
   2    2    4 2 
   3    3    4 1 
   4    1    5 1 
   5    1    6 1 
   6    2    7 1 
   7    2    8 1 
   8    3    9 1 
   9    4   10 1 
@<TRIPOS>SUBSTRUCTURE
   1  R0_    1
@<TRIPOS>COMMENT
SMALL
USER_CHARGES
