@<TRIPOS>MOLECULE
cyclohexene
   16    16    1     0    0
SMALL
USER_CHARGES
@<TRIPOS>ATOM
   1 C1      -0.8587    -1.3942     1.3107 C.2      1  R0_ -0.1709
   2 C2       0.1145    -0.9578     0.4991 C.2      1  R0_ -0.1709
   3 C3      -0.7780    -2.6879     2.0651 C.3      1  R0_ -0.0437
   4 C4       1.3701    -1.7339     0.2343 C.3      1  R0_ -0.0437
   5 C5       0.6295    -3.2899     2.0782 C.3      1  R0_ -0.0735
   6 C6       1.2893    -3.1880     0.7060 C.3      1  R0_ -0.0735
   7 H1      -1.7524    -0.7910     1.4401 H        1  R0_  0.1193
   8 H2      -0.0004    -0.0004    -0.0007 H        1  R0_  0.1193
   9 H3      -1.1069    -2.5283     3.0982 H        1  R0_  0.0455
  10 H4      -1.4797    -3.3973     1.6105 H        1  R0_  0.0455
  11 H5       1.5876    -1.7194    -0.8398 H        1  R0_  0.0455
  12 H6       2.2022    -1.2272     0.7373 H        1  R0_  0.0455
  13 H7       1.2471    -2.7625     2.8168 H        1  R0_  0.0389
  14 H8       0.5797    -4.3374     2.3963 H        1  R0_  0.0389
  15 H9       0.7117    -3.7768    -0.0179 H        1  R0_  0.0389
  16 H10      2.2952    -3.6220     0.7376 H        1  R0_  0.0389
@<TRIPOS>BOND
   1    1    2 2 
   2    1    3 1 
   3    2    4 1 
   4    3    5 1 
   5    4    6 1 
   6    5    6 1 
   7    1    7 1 
   8    2    8 1 
   9    3    9 1 
  10    3   10 1 
  11    4   11 1 
  12    4   12 1 
  13    5   13 1 
  14    5   14 1 
  15    6   15 1 
  16    6   16 1 
@<TRIPOS>SUBSTRUCTURE
   1  R0_    1
@<TRIPOS>COMMENT
SMALL
USER_CHARGES
