@<TRIPOS>MOLECULE
dimethoxymethane
   13    12    1     0    0
SMALL
USER_CHARGES
@<TRIPOS>ATOM
   1 C1       0.9848     2.0858    -1.1439 C.3      1  R0_  0.1246
   2 C2       3.5496    -0.1885    -0.7040 C.3      1  R0_  0.1246
   3 C3       2.7630     1.7603     0.3811 C.3      1  R0_  0.3244
   4 O1       1.3911     1.4995     0.0855 O.3      1  R0_ -0.4352
   5 O2       3.6773     1.2212    -0.5734 O.3      1  R0_ -0.4352
   6 H1       1.7507     2.7867    -1.4849 H        1  R0_  0.0355
   7 H2       0.0348     2.6076    -1.0034 H        1  R0_  0.0355
   8 H3       0.8582     1.2970    -1.8893 H        1  R0_  0.0355
   9 H4       2.8026    -0.4183    -1.4677 H        1  R0_  0.0355
  10 H5       3.2499    -0.6185     0.2551 H        1  R0_  0.0355
  11 H6       4.5137    -0.6066    -1.0031 H        1  R0_  0.0355
  12 H7       2.8986     2.8457     0.4467 H        1  R0_  0.0420
  13 H8       3.0117     1.3462     1.3648 H        1  R0_  0.0420
@<TRIPOS>BOND
   1    1    4 1 
   2    2    5 1 
   3    3    4 1 
   4    3    5 1 
   5    1    6 1 
   6    1    7 1 
   7    1    8 1 
   8    2    9 1 
   9    2   10 1 
  10    2   11 1 
  11    3   12 1 
  12    3   13 1 
@<TRIPOS>SUBSTRUCTURE
   1  R0_    1
@<TRIPOS>COMMENT
SMALL
NO_CHARGES
