@<TRIPOS>MOLECULE
formaldehyde
    4     3    1     0    0
SMALL
USER_CHARGES
@<TRIPOS>ATOM
   1 C1      -0.4874    -0.0359     0.9874 C.2      1  R0_  0.5600
   2 O1      -1.0697    -1.0342     1.3926 O.2      1  R0_ -0.5127
   3 H1      -0.4159     0.8863     1.5859 H        1  R0_ -0.0236
   4 H2       0.0000     0.0000     0.0000 H        1  R0_ -0.0236
@<TRIPOS>BOND
   1    1    2 2 
   2    1    3 1 
   3    1    4 1 
@<TRIPOS>SUBSTRUCTURE
   1  R0_    1
@<TRIPOS>COMMENT
SMALL
USER_CHARGES
