@<TRIPOS>MOLECULE
methyl_ethyl_sulfide
   12    11    1     0    0
SMALL
USER_CHARGES
@<TRIPOS>ATOM
   1 C1       2.8444    -1.6729     3.2549 C.3      1  R0_ -0.0876
   2 C2       1.6449     1.5272     0.9245 C.3      1  R0_ -0.0380
   3 C3       2.8855    -0.4869     2.3101 C.3      1  R0_ -0.0108
   4 S1       1.2245     0.1824     2.0582 S.3      1  R0_ -0.2996
   5 H1       2.4564    -1.3896     4.2392 H        1  R0_  0.0417
   6 H2       2.2251    -2.4836     2.8564 H        1  R0_  0.0417
   7 H3       3.8550    -2.0691     3.3997 H        1  R0_  0.0417
   8 H4       2.5983     1.9747     1.2158 H        1  R0_  0.0605
   9 H5       0.8672     2.2944     0.9543 H        1  R0_  0.0605
  10 H6       1.7276     1.1415    -0.0945 H        1  R0_  0.0605
  11 H7       3.2950    -0.7880     1.3411 H        1  R0_  0.0646
  12 H8       3.5247     0.3014     2.7191 H        1  R0_  0.0646
@<TRIPOS>BOND
   1    1    3 1 
   2    2    4 1 
   3    3    4 1 
   4    1    5 1 
   5    1    6 1 
   6    1    7 1 
   7    2    8 1 
   8    2    9 1 
   9    2   10 1 
  10    3   11 1 
  11    3   12 1 
@<TRIPOS>SUBSTRUCTURE
   1  R0_    1
@<TRIPOS>COMMENT
SMALL
USER_CHARGES
