@<TRIPOS>MOLECULE
n_butane
   14    13    1     0    0
SMALL
USER_CHARGES
@<TRIPOS>ATOM
   1 C1       0.4048    -0.7298     0.7083 C.3      1  R0_ -0.0894
   2 C2       2.5420     1.6208     2.9190 C.3      1  R0_ -0.0894
   3 C3       1.6372    -0.1820     1.4100 C.3      1  R0_ -0.0775
   4 C4       1.3160     1.0885     2.1945 C.3      1  R0_ -0.0775
   5 H1      -0.3791    -0.9797     1.4304 H        1  R0_  0.0313
   6 H2       0.0000     0.0000     0.0000 H        1  R0_  0.0313
   7 H3       0.6572    -1.6385     0.1527 H        1  R0_  0.0313
   8 H4       2.9266     0.8847     3.6322 H        1  R0_  0.0313
   9 H5       2.2900     2.5310     3.4723 H        1  R0_  0.0313
  10 H6       3.3411     1.8640     2.2114 H        1  R0_  0.0313
  11 H7       2.0358    -0.9470     2.0866 H        1  R0_  0.0365
  12 H8       2.4129     0.0268     0.6640 H        1  R0_  0.0365
  13 H9       0.9367     1.8604     1.5146 H        1  R0_  0.0365
  14 H10      0.5258     0.8846     2.9266 H        1  R0_  0.0365
@<TRIPOS>BOND
   1    1    3 1 
   2    2    4 1 
   3    3    4 1 
   4    1    5 1 
   5    1    6 1 
   6    1    7 1 
   7    2    8 1 
   8    2    9 1 
   9    2   10 1 
  10    3   11 1 
  11    3   12 1 
  12    4   13 1 
  13    4   14 1 
@<TRIPOS>SUBSTRUCTURE
   1  R0_    1
@<TRIPOS>COMMENT
SMALL
NO_CHARGES
