@<TRIPOS>MOLECULE
N_methylaniline
   17    17    1     0    0
SMALL
USER_CHARGES
@<TRIPOS>ATOM
   1 C1       1.8846    -1.0376    -0.1090 C.2      1  R0_ -0.1893
   2 C2       0.8176    -0.4410     0.5626 C.2      1  R0_ -0.0837
   3 C3       2.9348    -1.6038     0.6137 C.2      1  R0_ -0.0837
   4 C4       0.8008    -0.4105     1.9570 C.2      1  R0_ -0.2120
   5 C5       2.9180    -1.5734     2.0082 C.2      1  R0_ -0.2120
   6 C6       1.8509    -0.9767     2.6799 C.2      1  R0_  0.1995
   7 C7       3.0248    -0.9059     4.8805 C.3      1  R0_  0.2228
   8 N1       1.8337    -0.9465     4.0899 N.3      1  R0_ -0.8060
   9 H1       1.8974    -1.0609    -1.1947 H        1  R0_  0.1292
  10 H2       0.0001    -0.0003    -0.0006 H        1  R0_  0.1262
  11 H3       3.7655    -2.0684     0.0912 H        1  R0_  0.1262
  12 H4      -0.0360     0.0562     2.4705 H        1  R0_  0.1285
  13 H5       3.7416    -2.0175     2.5613 H        1  R0_  0.1285
  14 H6       3.9041    -0.8588     4.2329 H        1  R0_  0.0312
  15 H7       3.0948    -1.8009     5.5047 H        1  R0_  0.0312
  16 H8       3.0179    -0.0258     5.5293 H        1  R0_  0.0312
  17 H9       0.9347    -0.9560     4.5337 H        1  R0_  0.4318
@<TRIPOS>BOND
   1    1    2 1 
   2    1    3 2 
   3    2    4 2 
   4    3    5 1 
   5    4    6 1 
   6    5    6 2 
   7    6    8 1 
   8    7    8 1 
   9    1    9 1 
  10    2   10 1 
  11    3   11 1 
  12    4   12 1 
  13    5   13 1 
  14    7   14 1 
  15    7   15 1 
  16    7   16 1 
  17    8   17 1 
@<TRIPOS>SUBSTRUCTURE
   1  R0_    1
@<TRIPOS>COMMENT
SMALL
USER_CHARGES
