@<TRIPOS>MOLECULE
n_pentane
   17    16    1     0    0
SMALL
USER_CHARGES
@<TRIPOS>ATOM
   1 C1      -0.5107     0.9380    -0.3444 C.3      1  R0_ -0.0895
   2 C2       2.1551     1.0346    -4.6202 C.3      1  R0_ -0.0895
   3 C3      -0.5701     0.9512    -1.8635 C.3      1  R0_ -0.0770
   4 C4       0.7651     0.9996    -4.0051 C.3      1  R0_ -0.0770
   5 C5       0.8290     0.9520    -2.4788 C.3      1  R0_ -0.0758
   6 H1       0.0136     1.8207     0.0354 H        1  R0_  0.0313
   7 H2       0.0088     0.0460     0.0201 H        1  R0_  0.0313
   8 H3      -1.5220     0.9371     0.0745 H        1  R0_  0.0313
   9 H4       2.7092     1.9180    -4.2875 H        1  R0_  0.0313
  10 H5       2.0858     1.0683    -5.7120 H        1  R0_  0.0313
  11 H6       2.7290     0.1444    -4.3435 H        1  R0_  0.0313
  12 H7      -1.1285     0.0735    -2.2091 H        1  R0_  0.0368
  13 H8      -1.1229     1.8383    -2.1939 H        1  R0_  0.0368
  14 H9       0.2266     0.1226    -4.3831 H        1  R0_  0.0368
  15 H10      0.2071     1.8866    -4.3270 H        1  R0_  0.0368
  16 H11      1.3706     0.0525    -2.1614 H        1  R0_  0.0367
  17 H12      1.3933     1.8162    -2.1076 H        1  R0_  0.0367
@<TRIPOS>BOND
   1    1    3 1 
   2    2    4 1 
   3    3    5 1 
   4    4    5 1 
   5    1    6 1 
   6    1    7 1 
   7    1    8 1 
   8    2    9 1 
   9    2   10 1 
  10    2   11 1 
  11    3   12 1 
  12    3   13 1 
  13    4   14 1 
  14    4   15 1 
  15    5   16 1 
  16    5   17 1 
@<TRIPOS>SUBSTRUCTURE
   1  R0_    1
@<TRIPOS>COMMENT
SMALL
NO_CHARGES
