@<TRIPOS>MOLECULE
nitrobenzene
   14    14    1     0    0
SMALL
USER_CHARGES
@<TRIPOS>ATOM
   1 C1       1.8846    -1.0376    -0.1090 C.2      1  R0_ -0.0913
   2 C2       0.8176    -0.4410     0.5626 C.2      1  R0_ -0.1362
   3 C3       2.9348    -1.6038     0.6137 C.2      1  R0_ -0.1362
   4 C4       0.8008    -0.4105     1.9570 C.2      1  R0_ -0.0710
   5 C5       2.9180    -1.5734     2.0082 C.2      1  R0_ -0.0710
   6 C6       1.8509    -0.9767     2.6799 C.2      1  R0_ -0.1695
   7 N1       1.8324    -0.9478     4.0993 N.2      1  R0_  0.3105
   8 O1       0.8621    -0.4079     4.6840 O.3      1  R0_ -0.2054
   9 O2       2.7865    -1.4631     4.7307 O.2      1  R0_ -0.2054
  10 H1       1.8984    -1.0608    -1.1947 H        1  R0_  0.1443
  11 H2       0.0006     0.0002    -0.0005 H        1  R0_  0.1484
  12 H3       3.7658    -2.0678     0.0907 H        1  R0_  0.1484
  13 H4      -0.0377     0.0565     2.4681 H        1  R0_  0.1672
  14 H5       3.7420    -2.0193     2.5596 H        1  R0_  0.1672
@<TRIPOS>BOND
   1    1    2 1 
   2    1    3 2 
   3    2    4 2 
   4    3    5 1 
   5    4    6 1 
   6    5    6 2 
   7    6    7 1 
   8    7    8 1 
   9    7    9 2 
  10    1   10 1 
  11    2   11 1 
  12    3   12 1 
  13    4   13 1 
  14    5   14 1 
@<TRIPOS>SUBSTRUCTURE
   1  R0_    1
@<TRIPOS>COMMENT
SMALL
USER_CHARGES
