@<TRIPOS>MOLECULE
NN_dimethyl_p_methylbenzamide
   25    25    1     0    0
SMALL
USER_CHARGES
@<TRIPOS>ATOM
   1 C1       0.8443    -0.3260     0.5963 C.2      1  R0_ -0.0925
   2 C2       2.9576    -1.4944     0.6725 C.2      1  R0_ -0.0925
   3 C3       0.8404    -0.2424     1.9887 C.2      1  R0_ -0.1372
   4 C4       2.9536    -1.4108     2.0649 C.2      1  R0_ -0.1372
   5 C5       1.9029    -0.9520    -0.0617 C.2      1  R0_ -0.1364
   6 C6       1.8951    -0.7848     2.7230 C.2      1  R0_ -0.0507
   7 C7       1.9065    -1.0410    -1.5134 C.2      1  R0_  0.6717
   8 C8       1.8908    -0.6941     4.2116 C.3      1  R0_ -0.0649
   9 C9       2.5615    -0.0324    -3.7122 C.3      1  R0_  0.0844
  10 C10      3.1075     1.1612    -1.6204 C.3      1  R0_  0.0844
  11 N1       2.5041    -0.0073    -2.2575 N.3      1  R0_ -0.4827
  12 O1       1.3856    -2.0457    -2.0157 O.2      1  R0_ -0.5950
  13 H1       0.0174     0.0999     0.0336 H        1  R0_  0.1429
  14 H2       3.7872    -1.9851     0.1699 H        1  R0_  0.1429
  15 H3       0.0117     0.2471     2.4932 H        1  R0_  0.1363
  16 H4       3.7798    -1.8355     2.6287 H        1  R0_  0.1363
  17 H5       2.8007    -0.1948     4.5664 H        1  R0_  0.0466
  18 H6       1.0211    -0.1310     4.5740 H        1  R0_  0.0466
  19 H7       1.8385    -1.6897     4.6712 H        1  R0_  0.0466
  20 H8       3.5898     0.1581    -4.0260 H        1  R0_  0.0417
  21 H9       1.8984     0.7420    -4.1042 H        1  R0_  0.0417
  22 H10      2.2370    -1.0151    -4.0608 H        1  R0_  0.0417
  23 H11      2.3405     1.6808    -1.0425 H        1  R0_  0.0417
  24 H12      3.5050     1.8193    -2.3962 H        1  R0_  0.0417
  25 H13      3.9132     0.8276    -0.9631 H        1  R0_  0.0417
@<TRIPOS>BOND
   1    1    3 1 
   2    1    5 2 
   3    2    4 2 
   4    2    5 1 
   5    3    6 2 
   6    4    6 1 
   7    5    7 1 
   8    6    8 1 
   9    7   11 am
  10    7   12 2 
  11    9   11 1 
  12   10   11 1 
  13    1   13 1 
  14    2   14 1 
  15    3   15 1 
  16    4   16 1 
  17    8   17 1 
  18    8   18 1 
  19    8   19 1 
  20    9   20 1 
  21    9   21 1 
  22    9   22 1 
  23   10   23 1 
  24   10   24 1 
  25   10   25 1 
@<TRIPOS>SUBSTRUCTURE
   1  R0_    1
@<TRIPOS>COMMENT
SMALL
NO_CHARGES
