@<TRIPOS>MOLECULE
o_cresol
   16    16    1     0    0
SMALL
USER_CHARGES
@<TRIPOS>ATOM
   1 C1       1.8846    -1.0376    -0.1090 C.2      1  R0_ -0.1608
   2 C2       0.8176    -0.4410     0.5626 C.2      1  R0_ -0.0974
   3 C3       2.9348    -1.6038     0.6137 C.2      1  R0_ -0.1006
   4 C4       0.8008    -0.4105     1.9570 C.2      1  R0_ -0.2094
   5 C5       2.9180    -1.5734     2.0082 C.2      1  R0_ -0.0890
   6 C6       1.8509    -0.9767     2.6799 C.2      1  R0_  0.1194
   7 C7       4.0505    -2.1844     2.7654 C.3      1  R0_ -0.0491
   8 O1       1.8182    -0.9385     4.0415 O.3      1  R0_ -0.4992
   9 H1       1.8976    -1.0613    -1.1947 H        1  R0_  0.1327
  10 H2       0.0000    -0.0003    -0.0002 H        1  R0_  0.1319
  11 H3       3.7616    -2.0663     0.0812 H        1  R0_  0.1339
  12 H4      -0.0336     0.0559     2.4739 H        1  R0_  0.1319
  13 H5       4.5553    -1.4246     3.3734 H        1  R0_  0.0458
  14 H6       3.6987    -2.9849     3.4280 H        1  R0_  0.0458
  15 H7       4.7858    -2.6331     2.0857 H        1  R0_  0.0458
  16 H8       1.1609    -0.2760     4.3208 H        1  R0_  0.4181
@<TRIPOS>BOND
   1    1    2 1 
   2    1    3 2 
   3    2    4 2 
   4    3    5 1 
   5    4    6 1 
   6    5    6 2 
   7    5    7 1 
   8    6    8 1 
   9    1    9 1 
  10    2   10 1 
  11    3   11 1 
  12    4   12 1 
  13    7   13 1 
  14    7   14 1 
  15    7   15 1 
  16    8   16 1 
@<TRIPOS>SUBSTRUCTURE
   1  R0_    1
@<TRIPOS>COMMENT
SMALL
USER_CHARGES
