@<TRIPOS>MOLECULE
o_toluidine
   17    17    1     0    0
SMALL
USER_CHARGES
@<TRIPOS>ATOM
   1 C1       1.8846    -1.0376    -0.1090 C.2      1  R0_ -0.1705
   2 C2       0.8176    -0.4410     0.5626 C.2      1  R0_ -0.0965
   3 C3       2.9348    -1.6038     0.6137 C.2      1  R0_ -0.0935
   4 C4       0.8008    -0.4105     1.9570 C.2      1  R0_ -0.1908
   5 C5       2.9180    -1.5734     2.0082 C.2      1  R0_ -0.1281
   6 C6       1.8509    -0.9767     2.6799 C.2      1  R0_  0.1413
   7 C7       4.0560    -2.1875     2.7567 C.3      1  R0_ -0.0537
   8 N1       1.8167    -0.9364     4.0910 N.3      1  R0_ -0.8226
   9 H1       1.8976    -1.0613    -1.1947 H        1  R0_  0.1304
  10 H2       0.0000    -0.0003    -0.0003 H        1  R0_  0.1286
  11 H3       3.7615    -2.0661     0.0807 H        1  R0_  0.1284
  12 H4      -0.0361     0.0573     2.4694 H        1  R0_  0.1297
  13 H5       4.5594    -1.4309     3.3691 H        1  R0_  0.0397
  14 H6       3.7084    -2.9946     3.4129 H        1  R0_  0.0397
  15 H7       4.7897    -2.6273     2.0701 H        1  R0_  0.0397
  16 H8       2.4105    -1.5503     4.6095 H        1  R0_  0.3891
  17 H9       1.1344    -0.3644     4.5445 H        1  R0_  0.3891
@<TRIPOS>BOND
   1    1    2 1 
   2    1    3 2 
   3    2    4 2 
   4    3    5 1 
   5    4    6 1 
   6    5    6 2 
   7    5    7 1 
   8    6    8 1 
   9    1    9 1 
  10    2   10 1 
  11    3   11 1 
  12    4   12 1 
  13    7   13 1 
  14    7   14 1 
  15    7   15 1 
  16    8   16 1 
  17    8   17 1 
@<TRIPOS>SUBSTRUCTURE
   1  R0_    1
@<TRIPOS>COMMENT
SMALL
USER_CHARGES
