@<TRIPOS>MOLECULE
pentan_3_one
   16    15    1     0    0
SMALL
USER_CHARGES
@<TRIPOS>ATOM
   1 C1      -2.3713     0.3190    -1.4483 C.2      1  R0_  0.5595
   2 C2       0.1198     0.0446    -1.1087 C.3      1  R0_ -0.0845
   3 C3      -4.8794     0.4930    -1.7249 C.3      1  R0_ -0.0845
   4 C4      -0.9876     0.8895    -1.7119 C.3      1  R0_ -0.1800
   5 C5      -3.5272     1.1011    -2.0503 C.3      1  R0_ -0.1800
   6 O1      -2.5441    -0.7069    -0.7921 O.2      1  R0_ -0.5268
   7 H1       1.0972     0.4881    -1.3225 H        1  R0_  0.0407
   8 H2       0.0088    -0.0314    -0.0219 H        1  R0_  0.0407
   9 H3       0.1075    -0.9708    -1.5188 H        1  R0_  0.0407
  10 H4      -5.0437     0.4538    -0.6429 H        1  R0_  0.0407
  11 H5      -4.9540    -0.5287    -2.1122 H        1  R0_  0.0407
  12 H6      -5.6821     1.0877    -2.1717 H        1  R0_  0.0407
  13 H7      -0.9486     1.8990    -1.2896 H        1  R0_  0.0631
  14 H8      -0.8469     0.9568    -2.7957 H        1  R0_  0.0631
  15 H9      -3.3911     1.1290    -3.1363 H        1  R0_  0.0631
  16 H10     -3.4843     2.1249    -1.6643 H        1  R0_  0.0631
@<TRIPOS>BOND
   1    1    4 1 
   2    1    5 1 
   3    1    6 2 
   4    2    4 1 
   5    3    5 1 
   6    2    7 1 
   7    2    8 1 
   8    2    9 1 
   9    3   10 1 
  10    3   11 1 
  11    3   12 1 
  12    4   13 1 
  13    4   14 1 
  14    5   15 1 
  15    5   16 1 
@<TRIPOS>SUBSTRUCTURE
   1  R0_    1
@<TRIPOS>COMMENT
SMALL
USER_CHARGES
