@<TRIPOS>MOLECULE
phenol
   13    13    1     0    0
SMALL
USER_CHARGES
@<TRIPOS>ATOM
   1 C1       1.8846    -1.0376    -0.1090 C.2      1  R0_ -0.1656
   2 C2       0.8176    -0.4410     0.5626 C.2      1  R0_ -0.0943
   3 C3       2.9348    -1.6038     0.6137 C.2      1  R0_ -0.0943
   4 C4       0.8008    -0.4105     1.9570 C.2      1  R0_ -0.1850
   5 C5       2.9180    -1.5734     2.0082 C.2      1  R0_ -0.1850
   6 C6       1.8509    -0.9767     2.6799 C.2      1  R0_  0.1235
   7 O1       1.8342    -0.9476     4.0403 O.3      1  R0_ -0.4999
   8 H1       1.8990    -1.0598    -1.1948 H        1  R0_  0.1333
   9 H2      -0.0004    -0.0007    -0.0000 H        1  R0_  0.1330
  10 H3       3.7656    -2.0682     0.0905 H        1  R0_  0.1330
  11 H4      -0.0336     0.0549     2.4746 H        1  R0_  0.1411
  12 H5       3.7386    -2.0165     2.5657 H        1  R0_  0.1411
  13 H6       1.1790    -0.2881     4.3334 H        1  R0_  0.4190
@<TRIPOS>BOND
   1    1    2 1 
   2    1    3 2 
   3    2    4 2 
   4    3    5 1 
   5    4    6 1 
   6    5    6 2 
   7    6    7 1 
   8    1    8 1 
   9    2    9 1 
  10    3   10 1 
  11    4   11 1 
  12    5   12 1 
  13    7   13 1 
@<TRIPOS>SUBSTRUCTURE
   1  R0_    1
@<TRIPOS>COMMENT
SMALL
USER_CHARGES
