@<TRIPOS>MOLECULE
propane
   11    10    1     0    0
SMALL
USER_CHARGES
@<TRIPOS>ATOM
   1 C1      -0.5672    -0.3539     0.8668 C.3      1  R0_ -0.0898
   2 C2       0.9311     0.8792     2.4654 C.3      1  R0_ -0.0898
   3 C3       0.3235    -0.4626     2.0929 C.3      1  R0_ -0.0792
   4 H1      -1.3943     0.3411     1.0432 H        1  R0_  0.0311
   5 H2       0.0000     0.0000     0.0000 H        1  R0_  0.0311
   6 H3      -0.9920    -1.3316     0.6187 H        1  R0_  0.0311
   7 H4       1.5678     0.7749     3.3494 H        1  R0_  0.0311
   8 H5       0.1515     1.6133     2.6928 H        1  R0_  0.0311
   9 H6       1.5451     1.2720     1.6488 H        1  R0_  0.0311
  10 H7      -0.2621    -0.8446     2.9364 H        1  R0_  0.0361
  11 H8       1.1245    -1.1845     1.8988 H        1  R0_  0.0361
@<TRIPOS>BOND
   1    1    3 1 
   2    2    3 1 
   3    1    4 1 
   4    1    5 1 
   5    1    6 1 
   6    2    7 1 
   7    2    8 1 
   8    2    9 1 
   9    3   10 1 
  10    3   11 1 
@<TRIPOS>SUBSTRUCTURE
   1  R0_    1
@<TRIPOS>COMMENT
SMALL
NO_CHARGES
