@<TRIPOS>MOLECULE
thiophene
    9     9    1     0    0
SMALL
USER_CHARGES
@<TRIPOS>ATOM
   1 C1      -0.0619     0.6736    -2.1200 C.2      1  R0_ -0.1567
   2 C2      -0.3790    -0.1513    -1.0023 C.2      1  R0_ -0.1567
   3 C3      -0.6859     0.2469    -3.2715 C.2      1  R0_ -0.1692
   4 C4      -1.2335    -1.1769    -1.3423 C.2      1  R0_ -0.1692
   5 S1      -1.6496    -1.1428    -3.0031 S.3      1  R0_  0.0083
   6 H1       0.5911     1.5356    -2.0810 H        1  R0_  0.1523
   7 H2      -0.0009     0.0012     0.0001 H        1  R0_  0.1523
   8 H3      -0.6210     0.6847    -4.2576 H        1  R0_  0.1695
   9 H4      -1.6313    -1.9457    -0.6951 H        1  R0_  0.1695
@<TRIPOS>BOND
   1    1    2 1 
   2    1    3 2 
   3    2    4 2 
   4    3    5 1 
   5    4    5 1 
   6    1    6 1 
   7    2    7 1 
   8    3    8 1 
   9    4    9 1 
@<TRIPOS>SUBSTRUCTURE
   1  R0_    1
@<TRIPOS>COMMENT
SMALL
NO_CHARGES
