@<TRIPOS>MOLECULE
toluene
   15    15    1     0    0
SMALL
USER_CHARGES
@<TRIPOS>ATOM
   1 C1       1.8846    -1.0376    -0.1090 C.2      1  R0_ -0.1347
   2 C2       0.8176    -0.4410     0.5626 C.2      1  R0_ -0.1267
   3 C3       2.9348    -1.6038     0.6137 C.2      1  R0_ -0.1267
   4 C4       0.8008    -0.4105     1.9570 C.2      1  R0_ -0.1309
   5 C5       2.9180    -1.5734     2.0082 C.2      1  R0_ -0.1309
   6 C6       1.8509    -0.9767     2.6799 C.2      1  R0_ -0.0676
   7 C7       1.8328    -0.9437     4.1709 C.3      1  R0_ -0.0605
   8 H1       1.8979    -1.0612    -1.1948 H        1  R0_  0.1299
   9 H2       0.0002     0.0000    -0.0002 H        1  R0_  0.1297
  10 H3       3.7655    -2.0682     0.0906 H        1  R0_  0.1297
  11 H4      -0.0347     0.0567     2.4718 H        1  R0_  0.1301
  12 H5       3.7404    -2.0171     2.5631 H        1  R0_  0.1301
  13 H6       2.7355    -0.4517     4.5530 H        1  R0_  0.0428
  14 H7       0.9554    -0.4016     4.5468 H        1  R0_  0.0428
  15 H8       1.7842    -1.9568     4.5912 H        1  R0_  0.0428
@<TRIPOS>BOND
   1    1    2 1 
   2    1    3 2 
   3    2    4 2 
   4    3    5 1 
   5    4    6 1 
   6    5    6 2 
   7    6    7 1 
   8    1    8 1 
   9    2    9 1 
  10    3   10 1 
  11    4   11 1 
  12    5   12 1 
  13    7   13 1 
  14    7   14 1 
  15    7   15 1 
@<TRIPOS>SUBSTRUCTURE
   1  R0_    1
@<TRIPOS>COMMENT
SMALL
USER_CHARGES
