@<TRIPOS>MOLECULE
triacetyl_glycerol
   29    28    1     0    0
SMALL
USER_CHARGES
@<TRIPOS>ATOM
   1 C1      -0.0592    -0.9717    -1.9000 C.2      1  R0_  0.5553
   2 C2       1.7624    -2.7292    -2.2392 C.2      1  R0_  0.5553
   3 C3      -0.3329    -4.6375    -3.3333 C.2      1  R0_  0.5505
   4 C4       0.2945     0.3752    -2.4820 C.3      1  R0_ -0.1986
   5 C5       2.2015    -2.4525    -0.8197 C.3      1  R0_ -0.1986
   6 C6      -0.0833    -5.8971    -2.5367 C.3      1  R0_ -0.1922
   7 C7      -2.1222    -2.9122    -3.0878 C.3      1  R0_  0.1360
   8 C8       0.3624    -2.2405    -2.6679 C.3      1  R0_ -0.0502
   9 C9      -0.7368    -3.3529    -2.5680 C.3      1  R0_  0.0337
  10 O1      -0.6434    -1.0361    -0.8155 O.2      1  R0_ -0.5065
  11 O2       2.5167    -3.3324    -3.0043 O.2      1  R0_ -0.5065
  12 O3      -0.2438    -4.6684    -4.5625 O.2      1  R0_ -0.5235
  13 O4      -3.1063    -3.9153    -2.8931 O.3      1  R0_ -0.5945
  14 O5       0.4862    -1.8440    -4.0340 O.3      1  R0_ -0.5939
  15 O6      -0.8793    -3.7117    -1.1923 O.3      1  R0_ -0.5931
  16 H1       1.3176     0.6397    -2.2071 H        1  R0_  0.0780
  17 H2      -0.3881     1.1300    -2.0803 H        1  R0_  0.0780
  18 H3       0.1848     0.3715    -3.5684 H        1  R0_  0.0780
  19 H4       3.1081    -3.0249    -0.6019 H        1  R0_  0.0780
  20 H5       1.4268    -2.7621    -0.1148 H        1  R0_  0.0780
  21 H6       2.4214    -1.3892    -0.7002 H        1  R0_  0.0780
  22 H7       0.8165    -5.7793    -1.9281 H        1  R0_  0.0756
  23 H8      -0.9448    -6.1238    -1.9051 H        1  R0_  0.0756
  24 H9       0.0696    -6.7363    -3.2219 H        1  R0_  0.0756
  25 H10     -2.4605    -2.0026    -2.5786 H        1  R0_  0.0730
  26 H11     -2.0760    -2.6674    -4.1548 H        1  R0_  0.0730
  27 H12     -2.8770    -4.3808    -2.0717 H        1  R0_  0.4157
  28 H13      1.1490    -2.4296    -4.4298 H        1  R0_  0.4374
  29 H14     -1.1894    -2.9166    -0.7339 H        1  R0_  0.4333
@<TRIPOS>BOND
   1    1    4 1 
   2    1    8 1 
   3    1   10 2 
   4    2    5 1 
   5    2    8 1 
   6    2   11 2 
   7    3    6 1 
   8    3    9 1 
   9    3   12 2 
  10    7    9 1 
  11    7   13 1 
  12    8    9 1 
  13    8   14 1 
  14    9   15 1 
  15    4   16 1 
  16    4   17 1 
  17    4   18 1 
  18    5   19 1 
  19    5   20 1 
  20    5   21 1 
  21    6   22 1 
  22    6   23 1 
  23    6   24 1 
  24    7   25 1 
  25    7   26 1 
  26   13   27 1 
  27   14   28 1 
  28   15   29 1 
@<TRIPOS>SUBSTRUCTURE
   1  R0_    1
@<TRIPOS>COMMENT
SMALL
NO_CHARGES
