@<TRIPOS>MOLECULE
triethyl_phosphate
   26    25    1     0    0
SMALL
USER_CHARGES
@<TRIPOS>ATOM
   1 C1      -0.3558     0.1904     0.1426 C.3      1  R0_ -0.0934
   2 C2       1.0953    -0.1994    -6.1398 C.3      1  R0_ -0.0934
   3 C3       4.5322     2.5901    -1.4663 C.3      1  R0_ -0.0934
   4 C4       1.0022    -0.2850    -0.3279 C.3      1  R0_  0.1680
   5 C5       1.1533    -0.7794    -4.7427 C.3      1  R0_  0.1680
   6 C6       3.3408     1.8571    -2.0448 C.3      1  R0_  0.1680
   7 O1       2.8147    -2.0294    -2.3083 O.2      1  R0_ -0.7706
   8 O2       1.0804    -0.1386    -1.7355 O.3      1  R0_ -0.5625
   9 O3       2.1854    -0.1335    -4.0172 O.3      1  R0_ -0.5625
  10 O4       3.5625     0.4610    -1.9406 O.3      1  R0_ -0.5625
  11 P1       2.4477    -0.5829    -2.4828 P.3      1  R0_  1.5502
  12 H1      -0.4499     0.0903     1.2275 H        1  R0_  0.0476
  13 H2      -0.5137     1.2389    -0.1307 H        1  R0_  0.0476
  14 H3      -1.1538    -0.3869    -0.3359 H        1  R0_  0.0476
  15 H4       0.3074    -0.6775    -6.7284 H        1  R0_  0.0476
  16 H5       0.9045     0.8782    -6.1029 H        1  R0_  0.0476
  17 H6       2.0524    -0.3357    -6.6542 H        1  R0_  0.0476
  18 H7       4.3936     3.6729    -1.5316 H        1  R0_  0.0476
  19 H8       4.6820     2.3156    -0.4169 H        1  R0_  0.0476
  20 H9       5.4489     2.3185    -2.0003 H        1  R0_  0.0476
  21 H10      1.1487    -1.3393    -0.0746 H        1  R0_  0.0426
  22 H11      1.7977     0.3082     0.1329 H        1  R0_  0.0426
  23 H12      1.3671    -1.8517    -4.7809 H        1  R0_  0.0426
  24 H13      0.2043    -0.6215    -4.2217 H        1  R0_  0.0426
  25 H14      3.2068     2.1148    -3.0997 H        1  R0_  0.0426
  26 H15      2.4296     2.1113    -1.4952 H        1  R0_  0.0426
@<TRIPOS>BOND
   1    1    4 1 
   2    2    5 1 
   3    3    6 1 
   4    4    8 1 
   5    5    9 1 
   6    6   10 1 
   7    7   11 2 
   8    8   11 1 
   9    9   11 1 
  10   10   11 1 
  11    1   12 1 
  12    1   13 1 
  13    1   14 1 
  14    2   15 1 
  15    2   16 1 
  16    2   17 1 
  17    3   18 1 
  18    3   19 1 
  19    3   20 1 
  20    4   21 1 
  21    4   22 1 
  22    5   23 1 
  23    5   24 1 
  24    6   25 1 
  25    6   26 1 
@<TRIPOS>SUBSTRUCTURE
   1  R0_    1
@<TRIPOS>COMMENT
SMALL
NO_CHARGES
