@<TRIPOS>MOLECULE
trimethyl_phosphate
   17    16    1     0    0
SMALL
USER_CHARGES
@<TRIPOS>ATOM
   1 C1      -0.1277    -0.7853    -2.0978 C.3      1  R0_  0.1541
   2 C2       3.2416    -0.2747    -4.9518 C.3      1  R0_  0.1541
   3 C3       3.3408     1.8571    -2.0448 C.3      1  R0_  0.1541
   4 O1       2.8147    -2.0294    -2.3083 O.2      1  R0_ -0.7656
   5 O2       1.0804    -0.1386    -1.7355 O.3      1  R0_ -0.5573
   6 O3       2.1854    -0.1335    -4.0172 O.3      1  R0_ -0.5573
   7 O4       3.5625     0.4610    -1.9406 O.3      1  R0_ -0.5573
   8 P1       2.4477    -0.5829    -2.4828 P.3      1  R0_  1.5491
   9 H1       0.0627    -1.8485    -2.2634 H        1  R0_  0.0474
  10 H2      -0.5272    -0.3298    -3.0074 H        1  R0_  0.0474
  11 H3      -0.8503    -0.6688    -1.2867 H        1  R0_  0.0474
  12 H4       3.7899     0.6675    -5.0281 H        1  R0_  0.0474
  13 H5       2.8322    -0.5503    -5.9269 H        1  R0_  0.0474
  14 H6       3.9182    -1.0605    -4.6076 H        1  R0_  0.0474
  15 H7       2.9312     2.0891    -3.0310 H        1  R0_  0.0474
  16 H8       4.2839     2.3888    -1.8959 H        1  R0_  0.0474
  17 H9       2.6274     2.1621    -1.2756 H        1  R0_  0.0474
@<TRIPOS>BOND
   1    1    5 1 
   2    2    6 1 
   3    3    7 1 
   4    4    8 2 
   5    5    8 1 
   6    6    8 1 
   7    7    8 1 
   8    1    9 1 
   9    1   10 1 
  10    1   11 1 
  11    2   12 1 
  12    2   13 1 
  13    2   14 1 
  14    3   15 1 
  15    3   16 1 
  16    3   17 1 
@<TRIPOS>SUBSTRUCTURE
   1  R0_    1
@<TRIPOS>COMMENT
SMALL
NO_CHARGES
